
OS:Version,
  {a4cdc758-53c1-40b1-b558-2282dc5ffcce}, !- Handle
  3.1.0;                                  !- Version Identifier

OS:Site,
  {ddd99c35-affe-45bf-af93-d7fa8e98abc3}, !- Handle
  Site 1,                                 !- Name
  0,                                      !- Latitude {deg}
  0,                                      !- Longitude {deg}
  0,                                      !- Time Zone {hr}
  0,                                      !- Elevation {m}
  ;                                       !- Terrain

OS:SimulationControl,
  {54135e1e-3ccb-4d2d-adf9-076e9171bcce}, !- Handle
  No,                                     !- Do Zone Sizing Calculation
  No,                                     !- Do System Sizing Calculation
  No,                                     !- Do Plant Sizing Calculation
  Yes,                                    !- Run Simulation for Sizing Periods
  Yes,                                    !- Run Simulation for Weather File Run Periods
  ,                                       !- Loads Convergence Tolerance Value {W}
  ,                                       !- Temperature Convergence Tolerance Value {deltaC}
  ,                                       !- Solar Distribution
  ,                                       !- Maximum Number of Warmup Days
  ,                                       !- Minimum Number of Warmup Days
  No;                                     !- Do HVAC Sizing Simulation for Sizing Periods

OS:Timestep,
  {d0696ce0-03a2-4b5c-bf0e-1ac0df589160}, !- Handle
  6;                                      !- Number of Timesteps per Hour

OS:Building,
  {49a4fb55-1b43-4aa5-b088-2e19387060e0}, !- Handle
  Building 1,                             !- Name
  ,                                       !- Building Sector Type
  ,                                       !- North Axis {deg}
  ,                                       !- Nominal Floor to Floor Height {m}
  ,                                       !- Space Type Name
  ,                                       !- Default Construction Set Name
  ;                                       !- Default Schedule Set Name

OS:ThermalZone,
  {1474f31e-d16a-476a-9c03-6fe70a086f75}, !- Handle
  Thermal Zone 1 Thermal Zone Thermal Zone, !- Name
  1,                                      !- Multiplier
  ,                                       !- Ceiling Height {m}
  ,                                       !- Volume {m3}
  ,                                       !- Floor Area {m2}
  ,                                       !- Zone Inside Convection Algorithm
  ,                                       !- Zone Outside Convection Algorithm
  ,                                       !- Zone Conditioning Equipment List Name
  {9a81df23-ad4f-417b-bb03-cef145e96152}, !- Zone Air Inlet Port List
  {97a3155d-f41b-4847-b52d-7858260e2d2f}, !- Zone Air Exhaust Port List
  {f30e6741-2db7-47aa-bd4f-aae8b1b4c3c8}, !- Zone Air Node Name
  {a152cf48-a584-4cd8-9dec-e34087169366}, !- Zone Return Air Port List
  ,                                       !- Primary Daylighting Control Name
  ,                                       !- Fraction of Zone Controlled by Primary Daylighting Control
  ,                                       !- Secondary Daylighting Control Name
  ,                                       !- Fraction of Zone Controlled by Secondary Daylighting Control
  ,                                       !- Illuminance Map Name
  {9876942a-2c0b-43ca-8868-3bdabc264980}, !- Group Rendering Name
  ,                                       !- Thermostat Name
  No;                                     !- Use Ideal Air Loads

OS:Node,
  {9cdc4dae-49d7-40ee-adaa-90015cbd8109}, !- Handle
  Node 1,                                 !- Name
  {f30e6741-2db7-47aa-bd4f-aae8b1b4c3c8}, !- Inlet Port
  ;                                       !- Outlet Port

OS:Connection,
  {f30e6741-2db7-47aa-bd4f-aae8b1b4c3c8}, !- Handle
  {fd3725b5-2303-43aa-98ba-c937cb8165a8}, !- Name
  {1474f31e-d16a-476a-9c03-6fe70a086f75}, !- Source Object
  11,                                     !- Outlet Port
  {9cdc4dae-49d7-40ee-adaa-90015cbd8109}, !- Target Object
  2;                                      !- Inlet Port

OS:PortList,
  {9a81df23-ad4f-417b-bb03-cef145e96152}, !- Handle
  {e550ff97-67c6-4227-b983-fabaf7a20132}, !- Name
  {1474f31e-d16a-476a-9c03-6fe70a086f75}; !- HVAC Component

OS:PortList,
  {97a3155d-f41b-4847-b52d-7858260e2d2f}, !- Handle
  {f5c742e2-e855-4e90-9665-651e318fc235}, !- Name
  {1474f31e-d16a-476a-9c03-6fe70a086f75}; !- HVAC Component

OS:PortList,
  {a152cf48-a584-4cd8-9dec-e34087169366}, !- Handle
  {bff26c98-7ae9-4c54-a831-6701ab58283e}, !- Name
  {1474f31e-d16a-476a-9c03-6fe70a086f75}; !- HVAC Component

OS:Sizing:Zone,
  {85f4c76c-65b8-45d9-bcca-7c0f55b22012}, !- Handle
  {1474f31e-d16a-476a-9c03-6fe70a086f75}, !- Zone or ZoneList Name
  SupplyAirTemperature,                   !- Zone Cooling Design Supply Air Temperature Input Method
  14,                                     !- Zone Cooling Design Supply Air Temperature {C}
  11.11,                                  !- Zone Cooling Design Supply Air Temperature Difference {deltaC}
  SupplyAirTemperature,                   !- Zone Heating Design Supply Air Temperature Input Method
  40,                                     !- Zone Heating Design Supply Air Temperature {C}
  11.11,                                  !- Zone Heating Design Supply Air Temperature Difference {deltaC}
  0.0085,                                 !- Zone Cooling Design Supply Air Humidity Ratio {kg-H2O/kg-air}
  0.008,                                  !- Zone Heating Design Supply Air Humidity Ratio {kg-H2O/kg-air}
  ,                                       !- Zone Heating Sizing Factor
  ,                                       !- Zone Cooling Sizing Factor
  DesignDay,                              !- Cooling Design Air Flow Method
  ,                                       !- Cooling Design Air Flow Rate {m3/s}
  ,                                       !- Cooling Minimum Air Flow per Zone Floor Area {m3/s-m2}
  ,                                       !- Cooling Minimum Air Flow {m3/s}
  ,                                       !- Cooling Minimum Air Flow Fraction
  DesignDay,                              !- Heating Design Air Flow Method
  ,                                       !- Heating Design Air Flow Rate {m3/s}
  ,                                       !- Heating Maximum Air Flow per Zone Floor Area {m3/s-m2}
  ,                                       !- Heating Maximum Air Flow {m3/s}
  ,                                       !- Heating Maximum Air Flow Fraction
  No,                                     !- Account for Dedicated Outdoor Air System
  NeutralSupplyAir,                       !- Dedicated Outdoor Air System Control Strategy
  autosize,                               !- Dedicated Outdoor Air Low Setpoint Temperature for Design {C}
  autosize;                               !- Dedicated Outdoor Air High Setpoint Temperature for Design {C}

OS:ZoneHVAC:EquipmentList,
  {5fc04e65-147f-4b91-ab78-507634aa9369}, !- Handle
  Zone HVAC Equipment List 1,             !- Name
  {1474f31e-d16a-476a-9c03-6fe70a086f75}, !- Thermal Zone
  ;                                       !- Load Distribution Scheme

OS:Space,
  {9dc200d8-198c-41f3-8353-654c640c76a9}, !- Handle
  Thermal Zone 1 Thermal Zone,            !- Name
  {ce777a07-6011-480f-8aeb-d996e98d7723}, !- Space Type Name
  ,                                       !- Default Construction Set Name
  ,                                       !- Default Schedule Set Name
  -0,                                     !- Direction of Relative North {deg}
  0,                                      !- X Origin {m}
  0,                                      !- Y Origin {m}
  0,                                      !- Z Origin {m}
  ,                                       !- Building Story Name
  {1474f31e-d16a-476a-9c03-6fe70a086f75}, !- Thermal Zone Name
  Yes;                                    !- Part of Total Floor Area

OS:Surface,
  {4880af85-5019-4fc1-ae6c-9b3fbd2ead8b}, !- Handle
  Surface 1,                              !- Name
  Floor,                                  !- Surface Type
  {805868f0-ee48-49ec-9383-07f1fe2a2ebd}, !- Construction Name
  {9dc200d8-198c-41f3-8353-654c640c76a9}, !- Space Name
  Ground,                                 !- Outside Boundary Condition
  ,                                       !- Outside Boundary Condition Object
  NoSun,                                  !- Sun Exposure
  NoWind,                                 !- Wind Exposure
  ,                                       !- View Factor to Ground
  ,                                       !- Number of Vertices
  15.4, 7.08, 0,                          !- X,Y,Z Vertex 1 {m}
  15.4, 0, 0,                             !- X,Y,Z Vertex 2 {m}
  0, 0, 0,                                !- X,Y,Z Vertex 3 {m}
  0, 7.08, 0;                             !- X,Y,Z Vertex 4 {m}

OS:Construction,
  {805868f0-ee48-49ec-9383-07f1fe2a2ebd}, !- Handle
  ExtSlabCarpet 4in ClimateZone 1-8,      !- Name
  ,                                       !- Surface Rendering Name
  {386e1755-1e04-445a-9270-9226ebe77f78}, !- Layer 1
  {7a66d9d7-a1a1-4cc8-a065-004b5d0009fe}; !- Layer 2

OS:Material,
  {386e1755-1e04-445a-9270-9226ebe77f78}, !- Handle
  MAT-CC05 4 HW CONCRETE,                 !- Name
  Rough,                                  !- Roughness
  0.1016,                                 !- Thickness {m}
  1.311,                                  !- Conductivity {W/m-K}
  2240,                                   !- Density {kg/m3}
  836.800000000001,                       !- Specific Heat {J/kg-K}
  0.9,                                    !- Thermal Absorptance
  0.85,                                   !- Solar Absorptance
  0.85;                                   !- Visible Absorptance

OS:Material:NoMass,
  {7a66d9d7-a1a1-4cc8-a065-004b5d0009fe}, !- Handle
  CP02 CARPET PAD,                        !- Name
  Smooth,                                 !- Roughness
  0.1,                                    !- Thermal Resistance {m2-K/W}
  0.9,                                    !- Thermal Absorptance
  0.8,                                    !- Solar Absorptance
  0.8;                                    !- Visible Absorptance

OS:Surface,
  {a0fbf91e-27d3-49c9-afe1-9116d06d4baf}, !- Handle
  Surface 2,                              !- Name
  Wall,                                   !- Surface Type
  {67ac50cf-295c-44b8-91ed-99d8441705e7}, !- Construction Name
  {9dc200d8-198c-41f3-8353-654c640c76a9}, !- Space Name
  Outdoors,                               !- Outside Boundary Condition
  ,                                       !- Outside Boundary Condition Object
  SunExposed,                             !- Sun Exposure
  WindExposed,                            !- Wind Exposure
  ,                                       !- View Factor to Ground
  ,                                       !- Number of Vertices
  15.4, 0, 3.51,                          !- X,Y,Z Vertex 1 {m}
  15.4, 0, 0,                             !- X,Y,Z Vertex 2 {m}
  15.4, 7.08, 0,                          !- X,Y,Z Vertex 3 {m}
  15.4, 7.08, 3.51;                       !- X,Y,Z Vertex 4 {m}

OS:Construction,
  {67ac50cf-295c-44b8-91ed-99d8441705e7}, !- Handle
  ASHRAE 189.1-2009 ExtWall Mass ClimateZone 1, !- Name
  ,                                       !- Surface Rendering Name
  {5eb75865-c6b3-4b05-ba53-4707a2be9d98}, !- Layer 1
  {6ee26217-ac18-4b07-ab3d-6a7ef8f659b4}, !- Layer 2
  {80ee5a76-2f16-4f1d-be59-9d8793e42d30}, !- Layer 3
  {fac94383-3668-46b0-ae42-af25e8b07cc9}; !- Layer 4

OS:Material,
  {5eb75865-c6b3-4b05-ba53-4707a2be9d98}, !- Handle
  1IN Stucco,                             !- Name
  Smooth,                                 !- Roughness
  0.0253,                                 !- Thickness {m}
  0.691799999999999,                      !- Conductivity {W/m-K}
  1858,                                   !- Density {kg/m3}
  836.999999999999,                       !- Specific Heat {J/kg-K}
  0.9,                                    !- Thermal Absorptance
  0.92,                                   !- Solar Absorptance
  0.92;                                   !- Visible Absorptance

OS:Material,
  {6ee26217-ac18-4b07-ab3d-6a7ef8f659b4}, !- Handle
  8IN Concrete HW,                        !- Name
  MediumRough,                            !- Roughness
  0.2033,                                 !- Thickness {m}
  1.72959999999999,                       !- Conductivity {W/m-K}
  2242.99999999999,                       !- Density {kg/m3}
  836.999999999999,                       !- Specific Heat {J/kg-K}
  0.9,                                    !- Thermal Absorptance
  0.65,                                   !- Solar Absorptance
  0.65;                                   !- Visible Absorptance

OS:Material,
  {80ee5a76-2f16-4f1d-be59-9d8793e42d30}, !- Handle
  Wall Insulation [31],                   !- Name
  MediumRough,                            !- Roughness
  0.0337000000000001,                     !- Thickness {m}
  0.0432,                                 !- Conductivity {W/m-K}
  91,                                     !- Density {kg/m3}
  836.999999999999,                       !- Specific Heat {J/kg-K}
  0.9,                                    !- Thermal Absorptance
  0.5,                                    !- Solar Absorptance
  0.5;                                    !- Visible Absorptance

OS:Material,
  {fac94383-3668-46b0-ae42-af25e8b07cc9}, !- Handle
  1/2IN Gypsum,                           !- Name
  Smooth,                                 !- Roughness
  0.0127,                                 !- Thickness {m}
  0.16,                                   !- Conductivity {W/m-K}
  784.9,                                  !- Density {kg/m3}
  830.000000000001,                       !- Specific Heat {J/kg-K}
  0.9,                                    !- Thermal Absorptance
  0.4,                                    !- Solar Absorptance
  0.4;                                    !- Visible Absorptance

OS:Surface,
  {1b1c6b16-2f13-4531-8fc9-451eecb261a0}, !- Handle
  Surface 3,                              !- Name
  Wall,                                   !- Surface Type
  {67ac50cf-295c-44b8-91ed-99d8441705e7}, !- Construction Name
  {9dc200d8-198c-41f3-8353-654c640c76a9}, !- Space Name
  Outdoors,                               !- Outside Boundary Condition
  ,                                       !- Outside Boundary Condition Object
  SunExposed,                             !- Sun Exposure
  WindExposed,                            !- Wind Exposure
  ,                                       !- View Factor to Ground
  ,                                       !- Number of Vertices
  0, 0, 3.51,                             !- X,Y,Z Vertex 1 {m}
  0, 0, 0,                                !- X,Y,Z Vertex 2 {m}
  15.4, 0, 0,                             !- X,Y,Z Vertex 3 {m}
  15.4, 0, 3.51;                          !- X,Y,Z Vertex 4 {m}

OS:SubSurface,
  {0142438b-54ea-436f-a625-e2c99959db75}, !- Handle
  Sub Surface 1,                          !- Name
  FixedWindow,                            !- Sub Surface Type
  {9c824427-85c7-487e-8dbc-e911485f82a2}, !- Construction Name
  {1b1c6b16-2f13-4531-8fc9-451eecb261a0}, !- Surface Name
  ,                                       !- Outside Boundary Condition Object
  ,                                       !- View Factor to Ground
  ,                                       !- Frame and Divider Name
  ,                                       !- Multiplier
  ,                                       !- Number of Vertices
  0.411128467806688, -2.88764567812905e-15, 2.86550609211035, !- X,Y,Z Vertex 1 {m}
  0.411128467806688, -2.88764567812905e-15, 2.10550609211035, !- X,Y,Z Vertex 2 {m}
  2.87112846780669, -2.88764567812905e-15, 2.10550609211035, !- X,Y,Z Vertex 3 {m}
  2.87112846780669, -2.88764567812905e-15, 2.86550609211035; !- X,Y,Z Vertex 4 {m}

OS:Construction,
  {9c824427-85c7-487e-8dbc-e911485f82a2}, !- Handle
  ASHRAE 189.1-2009 ExtWindow ClimateZone 1, !- Name
  ,                                       !- Surface Rendering Name
  {77e28c13-e0b2-48fc-8136-a198ce729d06}; !- Layer 1

OS:WindowMaterial:Glazing,
  {77e28c13-e0b2-48fc-8136-a198ce729d06}, !- Handle
  Theoretical Glass [167],                !- Name
  SpectralAverage,                        !- Optical Data Type
  ,                                       !- Window Glass Spectral Data Set Name
  0.00299999999999999,                    !- Thickness {m}
  0.2374,                                 !- Solar Transmittance at Normal Incidence
  0.7126,                                 !- Front Side Solar Reflectance at Normal Incidence
  0,                                      !- Back Side Solar Reflectance at Normal Incidence
  0.2512,                                 !- Visible Transmittance at Normal Incidence
  0.6988,                                 !- Front Side Visible Reflectance at Normal Incidence
  0,                                      !- Back Side Visible Reflectance at Normal Incidence
  0,                                      !- Infrared Transmittance at Normal Incidence
  0.985,                                  !- Front Side Infrared Hemispherical Emissivity
  0.985,                                  !- Back Side Infrared Hemispherical Emissivity
  2.1073,                                 !- Conductivity {W/m-K}
  1,                                      !- Dirt Correction Factor for Solar and Visible Transmittance
  No;                                     !- Solar Diffusing

OS:SubSurface,
  {8cc0bcb7-c440-4915-bcc4-8b4b2b8c5f96}, !- Handle
  Sub Surface 2,                          !- Name
  Door,                                   !- Sub Surface Type
  {8a416cd1-291c-47d7-a113-3a920624ca18}, !- Construction Name
  {1b1c6b16-2f13-4531-8fc9-451eecb261a0}, !- Surface Name
  ,                                       !- Outside Boundary Condition Object
  ,                                       !- View Factor to Ground
  ,                                       !- Frame and Divider Name
  ,                                       !- Multiplier
  ,                                       !- Number of Vertices
  10.8634781661482, 0, 2.23,              !- X,Y,Z Vertex 1 {m}
  10.8634781661482, 0, 0,                 !- X,Y,Z Vertex 2 {m}
  11.7434781661482, 0, 0,                 !- X,Y,Z Vertex 3 {m}
  11.7434781661482, 0, 2.23;              !- X,Y,Z Vertex 4 {m}

OS:Construction,
  {8a416cd1-291c-47d7-a113-3a920624ca18}, !- Handle
  Exterior Door,                          !- Name
  ,                                       !- Surface Rendering Name
  {eb09502b-c774-47ec-bc6a-2cd9a9937e65}, !- Layer 1
  {f72325ae-219b-41f5-97ac-90e49f90b9cd}; !- Layer 2

OS:Material,
  {eb09502b-c774-47ec-bc6a-2cd9a9937e65}, !- Handle
  F08 Metal surface,                      !- Name
  Smooth,                                 !- Roughness
  0.0008,                                 !- Thickness {m}
  45.2800000000001,                       !- Conductivity {W/m-K}
  7823.99999999999,                       !- Density {kg/m3}
  500,                                    !- Specific Heat {J/kg-K}
  0.9,                                    !- Thermal Absorptance
  0.7,                                    !- Solar Absorptance
  0.7;                                    !- Visible Absorptance

OS:Material,
  {f72325ae-219b-41f5-97ac-90e49f90b9cd}, !- Handle
  I01 25mm insulation board,              !- Name
  MediumRough,                            !- Roughness
  0.0254,                                 !- Thickness {m}
  0.03,                                   !- Conductivity {W/m-K}
  43,                                     !- Density {kg/m3}
  1210,                                   !- Specific Heat {J/kg-K}
  0.9,                                    !- Thermal Absorptance
  0.6,                                    !- Solar Absorptance
  0.6;                                    !- Visible Absorptance

OS:Surface,
  {c19a88a8-5ccc-44dd-af50-e24b1cf3ed4d}, !- Handle
  Surface 4,                              !- Name
  Wall,                                   !- Surface Type
  {67ac50cf-295c-44b8-91ed-99d8441705e7}, !- Construction Name
  {9dc200d8-198c-41f3-8353-654c640c76a9}, !- Space Name
  Outdoors,                               !- Outside Boundary Condition
  ,                                       !- Outside Boundary Condition Object
  SunExposed,                             !- Sun Exposure
  WindExposed,                            !- Wind Exposure
  ,                                       !- View Factor to Ground
  ,                                       !- Number of Vertices
  15.4, 7.08, 3.51,                       !- X,Y,Z Vertex 1 {m}
  15.4, 7.08, 0,                          !- X,Y,Z Vertex 2 {m}
  0, 7.08, 0,                             !- X,Y,Z Vertex 3 {m}
  0, 7.08, 3.51;                          !- X,Y,Z Vertex 4 {m}

OS:Surface,
  {583f49e3-118a-442f-8aae-9868c73e4f1e}, !- Handle
  Surface 5,                              !- Name
  RoofCeiling,                            !- Surface Type
  {f399e2a4-263e-488a-a36f-87ae8cfb4595}, !- Construction Name
  {9dc200d8-198c-41f3-8353-654c640c76a9}, !- Space Name
  Outdoors,                               !- Outside Boundary Condition
  ,                                       !- Outside Boundary Condition Object
  SunExposed,                             !- Sun Exposure
  WindExposed,                            !- Wind Exposure
  ,                                       !- View Factor to Ground
  ,                                       !- Number of Vertices
  15.4, 0, 3.51,                          !- X,Y,Z Vertex 1 {m}
  15.4, 7.08, 3.51,                       !- X,Y,Z Vertex 2 {m}
  0, 7.08, 3.51,                          !- X,Y,Z Vertex 3 {m}
  0, 0, 3.51;                             !- X,Y,Z Vertex 4 {m}

OS:Construction,
  {f399e2a4-263e-488a-a36f-87ae8cfb4595}, !- Handle
  ASHRAE 189.1-2009 ExtRoof IEAD ClimateZone 1, !- Name
  ,                                       !- Surface Rendering Name
  {6cbe8f6d-c058-4503-9e74-b1879270fc8a}, !- Layer 1
  {7f4f7e1c-4d1f-4cd1-af7f-967725312589}, !- Layer 2
  {b971a330-59a3-40e3-a5ca-2ab06a697cf5}; !- Layer 3

OS:Material,
  {6cbe8f6d-c058-4503-9e74-b1879270fc8a}, !- Handle
  Roof Membrane,                          !- Name
  VeryRough,                              !- Roughness
  0.0095,                                 !- Thickness {m}
  0.16,                                   !- Conductivity {W/m-K}
  1121.29,                                !- Density {kg/m3}
  1460,                                   !- Specific Heat {J/kg-K}
  0.9,                                    !- Thermal Absorptance
  0.7,                                    !- Solar Absorptance
  0.7;                                    !- Visible Absorptance

OS:Material,
  {7f4f7e1c-4d1f-4cd1-af7f-967725312589}, !- Handle
  Roof Insulation [18],                   !- Name
  MediumRough,                            !- Roughness
  0.1693,                                 !- Thickness {m}
  0.049,                                  !- Conductivity {W/m-K}
  265,                                    !- Density {kg/m3}
  836.800000000001,                       !- Specific Heat {J/kg-K}
  0.9,                                    !- Thermal Absorptance
  0.7,                                    !- Solar Absorptance
  0.7;                                    !- Visible Absorptance

OS:Material,
  {b971a330-59a3-40e3-a5ca-2ab06a697cf5}, !- Handle
  Metal Decking,                          !- Name
  MediumSmooth,                           !- Roughness
  0.0015,                                 !- Thickness {m}
  45.006,                                 !- Conductivity {W/m-K}
  7680,                                   !- Density {kg/m3}
  418.4,                                  !- Specific Heat {J/kg-K}
  0.9,                                    !- Thermal Absorptance
  0.6,                                    !- Solar Absorptance
  0.6;                                    !- Visible Absorptance

OS:Surface,
  {5242bc72-1265-448d-a0fe-1d4463c6aa86}, !- Handle
  Surface 6,                              !- Name
  Wall,                                   !- Surface Type
  {67ac50cf-295c-44b8-91ed-99d8441705e7}, !- Construction Name
  {9dc200d8-198c-41f3-8353-654c640c76a9}, !- Space Name
  Outdoors,                               !- Outside Boundary Condition
  ,                                       !- Outside Boundary Condition Object
  SunExposed,                             !- Sun Exposure
  WindExposed,                            !- Wind Exposure
  ,                                       !- View Factor to Ground
  ,                                       !- Number of Vertices
  0, 7.08, 3.51,                          !- X,Y,Z Vertex 1 {m}
  0, 7.08, 0,                             !- X,Y,Z Vertex 2 {m}
  0, 0, 0,                                !- X,Y,Z Vertex 3 {m}
  0, 0, 3.51;                             !- X,Y,Z Vertex 4 {m}

OS:ConvergenceLimits,
  {2f240b54-3c94-4d6f-9d5c-48750c59eb14}, !- Handle
  1;                                      !- Minimum System Timestep {minutes}

OS:HeatBalanceAlgorithm,
  {42dc6b6c-3d40-4aaf-9ae1-0cb1a1a84222}, !- Handle
  ConductionTransferFunction,             !- Algorithm
  200;                                    !- Surface Temperature Upper Limit {C}

OS:RunPeriod,
  {1768142f-4802-4e3e-8e78-69b401c3c052}, !- Handle
  Run Period 1,                           !- Name
  1,                                      !- Begin Month
  1,                                      !- Begin Day of Month
  12,                                     !- End Month
  31,                                     !- End Day of Month
  No,                                     !- Use Weather File Holidays and Special Days
  No,                                     !- Use Weather File Daylight Saving Period
  No,                                     !- Apply Weekend Holiday Rule
  Yes,                                    !- Use Weather File Rain Indicators
  Yes,                                    !- Use Weather File Snow Indicators
  ;                                       !- Number of Times Runperiod to be Repeated

OS:YearDescription,
  {f0f63240-5b7a-42ae-b34c-9446557a1bde}, !- Handle
  2009,                                   !- Calendar Year
  ,                                       !- Day of Week for Start Day
  ;                                       !- Is Leap Year

OS:ShadowCalculation,
  {f7793252-fd3e-4f91-97d5-b46afc982d9a}, !- Handle
  PolygonClipping,                        !- Shading Calculation Method
  Periodic,                               !- Shading Calculation Update Frequency Method
  20,                                     !- Shading Calculation Update Frequency
  15000,                                  !- Maximum Figures in Shadow Overlap Calculations
  SutherlandHodgman,                      !- Polygon Clipping Algorithm
  512,                                    !- Pixel Counting Resolution
  SimpleSkyDiffuseModeling,               !- Sky Diffuse Modeling Algorithm
  No,                                     !- Output External Shading Calculation Results
  No,                                     !- Disable Self-Shading Within Shading Zone Groups
  No;                                     !- Disable Self-Shading From Shading Zone Groups to Other Zones

OS:Sizing:Parameters,
  {ded9fc4f-ee19-4afe-9e97-13128123a256}, !- Handle
  1.25,                                   !- Heating Sizing Factor
  1.15;                                   !- Cooling Sizing Factor

OS:Material,
  {5b4bab57-93c9-4f23-96d7-c23d698a4304}, !- Handle
  F16 Acoustic tile,                      !- Name
  MediumSmooth,                           !- Roughness
  0.0191,                                 !- Thickness {m}
  0.06,                                   !- Conductivity {W/m-K}
  368,                                    !- Density {kg/m3}
  590.000000000002,                       !- Specific Heat {J/kg-K}
  0.9,                                    !- Thermal Absorptance
  0.3,                                    !- Solar Absorptance
  0.3;                                    !- Visible Absorptance

OS:Material,
  {6e238b66-a218-4e7d-abf9-42f961fa7f54}, !- Handle
  G01a 19mm gypsum board,                 !- Name
  MediumSmooth,                           !- Roughness
  0.019,                                  !- Thickness {m}
  0.16,                                   !- Conductivity {W/m-K}
  800,                                    !- Density {kg/m3}
  1090,                                   !- Specific Heat {J/kg-K}
  0.9,                                    !- Thermal Absorptance
  0.4,                                    !- Solar Absorptance
  0.4;                                    !- Visible Absorptance

OS:Material,
  {81f93059-07d8-400d-849c-616368c0f8f8}, !- Handle
  G05 25mm wood,                          !- Name
  MediumSmooth,                           !- Roughness
  0.0254,                                 !- Thickness {m}
  0.15,                                   !- Conductivity {W/m-K}
  608,                                    !- Density {kg/m3}
  1630,                                   !- Specific Heat {J/kg-K}
  0.9,                                    !- Thermal Absorptance
  0.5,                                    !- Solar Absorptance
  0.5;                                    !- Visible Absorptance

OS:Material,
  {7735329b-4962-468a-99cf-d27e16ca0d7d}, !- Handle
  M11 100mm lightweight concrete,         !- Name
  MediumRough,                            !- Roughness
  0.1016,                                 !- Thickness {m}
  0.53,                                   !- Conductivity {W/m-K}