!- Linux Line endings

Version,
    9.3;                      !- Version Identifier

SimulationControl,
    Yes,                      !- Do Zone Sizing Calculation
    Yes,                      !- Do System Sizing Calculation
    No,                       !- Do Plant Sizing Calculation
    No,                       !- Run Simulation for Sizing Periods
    Yes,                      !- Run Simulation for Weather File Run Periods
    ,                         !- Do HVAC Sizing Simulation for Sizing Periods
    ;                         !- Maximum Number of HVAC Sizing Simulation Passes

Building,
    Building 1,               !- Name
    ,                         !- North Axis
    ,                         !- Terrain
    ,                         !- Loads Convergence Tolerance Value
    ,                         !- Temperature Convergence Tolerance Value
    ,                         !- Solar Distribution
    ,                         !- Maximum Number of Warmup Days
    ;                         !- Minimum Number of Warmup Days

Timestep,
    6;                        !- Number of Timesteps per Hour

SizingPeriod:DesignDay,
    Denver Centennial Ann Htg 99.6% Condns DB,    !- Name
    12,                       !- Month
    21,                       !- Day of Month
    WinterDesignDay,          !- Day Type
    -18.8,                    !- Maximum DryBulb Temperature
    0,                        !- Daily DryBulb Temperature Range
    ,                         !- DryBulb Temperature Range Modifier Type
    ,                         !- DryBulb Temperature Range Modifier Day Schedule Name
    Wetbulb,                  !- Humidity Condition Type
    -18.8,                    !- Wetbulb or DewPoint at Maximum DryBulb
    ,                         !- Humidity Condition Day Schedule Name
    ,                         !- Humidity Ratio at Maximum DryBulb
    ,                         !- Enthalpy at Maximum DryBulb
    ,                         !- Daily WetBulb Temperature Range
    81560,                    !- Barometric Pressure
    3,                        !- Wind Speed
    340,                      !- Wind Direction
    No,                       !- Rain Indicator
    No,                       !- Snow Indicator
    No,                       !- Daylight Saving Time Indicator
    ASHRAEClearSky,           !- Solar Model Indicator
    ,                         !- Beam Solar Day Schedule Name
    ,                         !- Diffuse Solar Day Schedule Name
    ,                         !- ASHRAE Clear Sky Optical Depth for Beam Irradiance taub
    ,                         !- ASHRAE Clear Sky Optical Depth for Diffuse Irradiance taud
    0;                        !- Sky Clearness

SizingPeriod:DesignDay,
    Denver Centennial Ann Clg 1% Condns DB=>MWB,    !- Name
    7,                        !- Month
    21,                       !- Day of Month
    SummerDesignDay,          !- Day Type
    32,                       !- Maximum DryBulb Temperature
    15.2,                     !- Daily DryBulb Temperature Range
    ,                         !- DryBulb Temperature Range Modifier Type
    ,                         !- DryBulb Temperature Range Modifier Day Schedule Name
    Wetbulb,                  !- Humidity Condition Type
    15.5,                     !- Wetbulb or DewPoint at Maximum DryBulb
    ,                         !- Humidity Condition Day Schedule Name
    ,                         !- Humidity Ratio at Maximum DryBulb
    ,                         !- Enthalpy at Maximum DryBulb
    ,                         !- Daily WetBulb Temperature Range
    81560,                    !- Barometric Pressure
    4.9,                      !- Wind Speed
    0,                        !- Wind Direction
    No,                       !- Rain Indicator
    No,                       !- Snow Indicator
    No,                       !- Daylight Saving Time Indicator
    ASHRAEClearSky,           !- Solar Model Indicator
    ,                         !- Beam Solar Day Schedule Name
    ,                         !- Diffuse Solar Day Schedule Name
    ,                         !- ASHRAE Clear Sky Optical Depth for Beam Irradiance taub
    ,                         !- ASHRAE Clear Sky Optical Depth for Diffuse Irradiance taud
    1;                        !- Sky Clearness

RunPeriod,
    Run Period 1,             !- Name
    1,                        !- Begin Month
    1,                        !- Begin Day of Month
    ,                         !- Begin Year
    12,                       !- End Month
    31,                       !- End Day of Month
    ,                         !- End Year
    Tuesday,                  !- Day of Week for Start Day
    Yes,                      !- Use Weather File Holidays and Special Days
    Yes,                      !- Use Weather File Daylight Saving Period
    No,                       !- Apply Weekend Holiday Rule
    Yes,                      !- Use Weather File Rain Indicators
    Yes;                      !- Use Weather File Snow Indicators

ScheduleTypeLimits,
    ActivityLevel,            !- Name
    0,                        !- Lower Limit Value
    ,                         !- Upper Limit Value
    Continuous,               !- Numeric Type
    activitylevel;            !- Unit Type

ScheduleTypeLimits,
    ActivityLevel 12,         !- Name
    0,                        !- Lower Limit Value
    ,                         !- Upper Limit Value
    Continuous,               !- Numeric Type
    activitylevel;            !- Unit Type

ScheduleTypeLimits,
    ActivityLevel 13,         !- Name
    0,                        !- Lower Limit Value
    ,                         !- Upper Limit Value
    Continuous,               !- Numeric Type
    activitylevel;            !- Unit Type

ScheduleTypeLimits,
    ActivityLevel 5,          !- Name
    0,                        !- Lower Limit Value
    ,                         !- Upper Limit Value
    Continuous,               !- Numeric Type
    activitylevel;            !- Unit Type

ScheduleTypeLimits,
    Always On Discrete Limits,    !- Name
    0,                        !- Lower Limit Value
    1,                        !- Upper Limit Value
    Discrete,                 !- Numeric Type
    availability;             !- Unit Type

ScheduleTypeLimits,
    Fraction,                 !- Name
    0,                        !- Lower Limit Value
    1,                        !- Upper Limit Value
    CONTINUOUS;               !- Numeric Type

ScheduleTypeLimits,
    Fractional,               !- Name
    0,                        !- Lower Limit Value
    1,                        !- Upper Limit Value
    Continuous;               !- Numeric Type

ScheduleTypeLimits,
    Temperature 11,           !- Name
    ,                         !- Lower Limit Value
    ,                         !- Upper Limit Value
    Continuous,               !- Numeric Type
    temperature;              !- Unit Type

ScheduleTypeLimits,
    Temperature 3,            !- Name
    ,                         !- Lower Limit Value
    ,                         !- Upper Limit Value
    Continuous,               !- Numeric Type
    temperature;              !- Unit Type

ScheduleTypeLimits,
    Temperature 36,           !- Name
    ,                         !- Lower Limit Value
    ,                         !- Upper Limit Value
    Continuous,               !- Numeric Type
    temperature;              !- Unit Type

ScheduleTypeLimits,
    Temperature 37,           !- Name
    ,                         !- Lower Limit Value
    ,                         !- Upper Limit Value
    Continuous,               !- Numeric Type
    temperature;              !- Unit Type

ScheduleTypeLimits,
    Temperature 4,            !- Name
    ,                         !- Lower Limit Value
    ,                         !- Upper Limit Value
    Continuous,               !- Numeric Type
    temperature;              !- Unit Type

ScheduleTypeLimits,
    Temperature 5,            !- Name
    ,                         !- Lower Limit Value
    ,                         !- Upper Limit Value
    Continuous,               !- Numeric Type
    temperature;              !- Unit Type

Schedule:Day:Interval,
    Large Office Activity Default Schedule,    !- Name
    ActivityLevel 5,          !- Schedule Type Limits Name
    No,                       !- Interpolate to Timestep
    24:00,                    !- Time 1
    120;                      !- Value Until Time 1

Schedule:Day:Interval,
    Large Office Activity Summer Design Day,    !- Name
    ActivityLevel 5,          !- Schedule Type Limits Name
    No,                       !- Interpolate to Timestep
    24:00,                    !- Time 1
    120;                      !- Value Until Time 1

Schedule:Day:Interval,
    Large Office Activity Winter Design Day,    !- Name
    ActivityLevel 5,          !- Schedule Type Limits Name
    No,                       !- Interpolate to Timestep
    24:00,                    !- Time 1
    120;                      !- Value Until Time 1

Schedule:Day:Interval,
    Large Office Bldg Equip Default Schedule,    !- Name
    Fractional,               !- Schedule Type Limits Name
    No,                       !- Interpolate to Timestep
    08:00,                    !- Time 1
    0.4,                      !- Value Until Time 1
    12:00,                    !- Time 2
    0.9,                      !- Value Until Time 2
    13:00,                    !- Time 3
    0.8,                      !- Value Until Time 3
    17:00,                    !- Time 4
    0.9,                      !- Value Until Time 4
    18:00,                    !- Time 5
    0.8,                      !- Value Until Time 5
    20:00,                    !- Time 6
    0.6,                      !- Value Until Time 6
    22:00,                    !- Time 7
    0.5,                      !- Value Until Time 7
    24:00,                    !- Time 8
    0.4;                      !- Value Until Time 8

Schedule:Day:Interval,
    Large Office Bldg Equip Rule 1 Day Schedule,    !- Name
    Fractional,               !- Schedule Type Limits Name
    No,                       !- Interpolate to Timestep
    24:00,                    !- Time 1
    0.3;                      !- Value Until Time 1

Schedule:Day:Interval,
    Large Office Bldg Equip Rule 2 Day Schedule,    !- Name
    Fractional,               !- Schedule Type Limits Name
    No,                       !- Interpolate to Timestep
    06:00,                    !- Time 1
    0.3,                      !- Value Until Time 1
    08:00,                    !- Time 2
    0.4,                      !- Value Until Time 2
    14:00,                    !- Time 3
    0.5,                      !- Value Until Time 3
    17:00,                    !- Time 4
    0.35,                     !- Value Until Time 4
    24:00,                    !- Time 5
    0.3;                      !- Value Until Time 5

Schedule:Day:Interval,
    Large Office Bldg Equip Summer Design Day,    !- Name
    Fractional,               !- Schedule Type Limits Name
    No,                       !- Interpolate to Timestep
    24:00,                    !- Time 1
    1;                        !- Value Until Time 1

Schedule:Day:Interval,
    Large Office Bldg Equip Winter Design Day,    !- Name
    Fractional,               !- Schedule Type Limits Name
    No,                       !- Interpolate to Timestep
    24:00,                    !- Time 1
    0;                        !- Value Until Time 1

Schedule:Day:Interval,
    Large Office Bldg Light Default Schedule,    !- Name
    Fractional,               !- Schedule Type Limits Name
    No,                       !- Interpolate to Timestep
    05:00,                    !- Time 1
    0.05,                     !- Value Until Time 1
    07:00,                    !- Time 2
    0.1,                      !- Value Until Time 2
    08:00,                    !- Time 3
    0.3,                      !- Value Until Time 3
    17:00,                    !- Time 4
    0.9,                      !- Value Until Time 4
    18:00,                    !- Time 5
    0.7,                      !- Value Until Time 5
    20:00,                    !- Time 6
    0.5,                      !- Value Until Time 6
    22:00,                    !- Time 7
    0.3,                      !- Value Until Time 7
    23:00,                    !- Time 8
    0.1,                      !- Value Until Time 8
    24:00,                    !- Time 9
    0.05;                     !- Value Until Time 9

Schedule:Day:Interval,
    Large Office Bldg Light Rule 1 Day Schedule,    !- Name
    Fractional,               !- Schedule Type Limits Name
    No,                       !- Interpolate to Timestep
    24:00,                    !- Time 1
    0.05;                     !- Value Until Time 1

Schedule:Day:Interval,
    Large Office Bldg Light Rule 2 Day Schedule,    !- Name
    Fractional,               !- Schedule Type Limits Name
    No,                       !- Interpolate to Timestep
    06:00,                    !- Time 1
    0.05,                     !- Value Until Time 1
    08:00,                    !- Time 2
    0.1,                      !- Value Until Time 2
    14:00,                    !- Time 3
    0.5,                      !- Value Until Time 3
    17:00,                    !- Time 4
    0.15,                     !- Value Until Time 4
    24:00,                    !- Time 5
    0.05;                     !- Value Until Time 5

Schedule:Day:Interval,
    Large Office Bldg Light Summer Design Day,    !- Name
    Fractional,               !- Schedule Type Limits Name
    No,                       !- Interpolate to Timestep
    24:00,                    !- Time 1
    1;                        !- Value Until Time 1

Schedule:Day:Interval,
    Large Office Bldg Light Winter Design Day,    !- Name
    Fractional,               !- Schedule Type Limits Name
    No,                       !- Interpolate to Timestep
    24:00,                    !- Time 1
    0;                        !- Value Until Time 1

Schedule:Day:Interval,
    Large Office Bldg Occ Default Schedule,    !- Name
    Fractional,               !- Schedule Type Limits Name
    No,                       !- Interpolate to Timestep
    06:00,                    !- Time 1
    0,                        !- Value Until Time 1
    07:00,                    !- Time 2
    0.1,                      !- Value Until Time 2
    08:00,                    !- Time 3
    0.2,                      !- Value Until Time 3
    12:00,                    !- Time 4
    0.95,                     !- Value Until Time 4
    13:00,                    !- Time 5
    0.5,                      !- Value Until Time 5
    17:00,                    !- Time 6
    0.95,                     !- Value Until Time 6
    18:00,                    !- Time 7
    0.7,                      !- Value Until Time 7
    20:00,                    !- Time 8
    0.4,                      !- Value Until Time 8
    22:00,                    !- Time 9
    0.1,                      !- Value Until Time 9
    24:00,                    !- Time 10
    0.05;                     !- Value Until Time 10

Schedule:Day:Interval,
    Large Office Bldg Occ Rule 1 Day Schedule,    !- Name
    Fractional,               !- Schedule Type Limits Name
    No,                       !- Interpolate to Timestep
    24:00,                    !- Time 1
    0;                        !- Value Until Time 1

Schedule:Day:Interval,
    Large Office Bldg Occ Rule 2 Day Schedule,    !- Name
    Fractional,               !- Schedule Type Limits Name
    No,                       !- Interpolate to Timestep
    06:00,                    !- Time 1
    0,                        !- Value Until Time 1
    08:00,                    !- Time 2
    0.1,                      !- Value Until Time 2
    14:00,                    !- Time 3
    0.5,                      !- Value Until Time 3
    17:00,                    !- Time 4
    0.1,                      !- Value Until Time 4
    24:00,                    !- Time 5
    0;                        !- Value Until Time 5

Schedule:Day:Interval,
    Large Office Bldg Occ Summer Design Day,    !- Name
    Fractional,               !- Schedule Type Limits Name
    No,                       !- Interpolate to Timestep
    06:00,                    !- Time 1
    0,                        !- Value Until Time 1
    22:00,                    !- Time 2
    1,                        !- Value Until Time 2
    24:00,                    !- Time 3
    0.05;                     !- Value Until Time 3

Schedule:Day:Interval,
    Large Office Bldg Occ Winter Design Day,    !- Name
    Fractional,               !- Schedule Type Limits Name
    No,                       !- Interpolate to Timestep
    24:00,                    !- Time 1
    0;                        !- Value Until Time 1

Schedule:Day:Interval,
    Large Office ClgSetp Default Schedule,    !- Name
    Temperature 5,            !- Schedule Type Limits Name
    No,                       !- Interpolate to Timestep
    06:00,                    !- Time 1
    26.7,                     !- Value Until Time 1
    22:00,                    !- Time 2
    24,                       !- Value Until Time 2
    24:00,                    !- Time 3
    26.7;                     !- Value Until Time 3

Schedule:Day:Interval,
    Large Office ClgSetp Rule 1 Day Schedule,    !- Name
    Temperature 5,            !- Schedule Type Limits Name
    No,                       !- Interpolate to Timestep
    24:00,                    !- Time 1
    26.7;                     !- Value Until Time 1

Schedule:Day:Interval,
    Large Office ClgSetp Rule 2 Day Schedule,    !- Name
    Temperature 5,            !- Schedule Type Limits Name
    No,                       !- Interpolate to Timestep
    06:00,                    !- Time 1
    26.7,                     !- Value Until Time 1
    18:00,                    !- Time 2
    24,                       !- Value Until Time 2
    24:00,                    !- Time 3
    26.7;                     !- Value Until Time 3

Schedule:Day:Interval,
    Large Office ClgSetp Summer Design Day,    !- Name
    Temperature 5,            !- Schedule Type Limits Name
    No,                       !- Interpolate to Timestep
    06:00,                    !- Time 1
    26.7,                     !- Value Until Time 1
    22:00,                    !- Time 2
    24,                       !- Value Until Time 2
    24:00,                    !- Time 3
    26.7;                     !- Value Until Time 3

Schedule:Day:Interval,
    Large Office ClgSetp Winter Design Day,    !- Name
    Temperature 5,            !- Schedule Type Limits Name
    No,                       !- Interpolate to Timestep
    24:00,                    !- Time 1
    26.7;                     !- Value Until Time 1

Schedule:Day:Interval,
    Large Office HtgSetp Default Schedule,    !- Name
    Temperature 3,            !- Schedule Type Limits Name
    No,                       !- Interpolate to Timestep
    06:00,                    !- Time 1
    15.6,                     !- Value Until Time 1
    22:00,                    !- Time 2
    21,                       !- Value Until Time 2
    24:00,                    !- Time 3
    15.6;                     !- Value Until Time 3

Schedule:Day:Interval,
    Large Office HtgSetp Rule 1 Day Schedule,    !- Name
    Temperature 3,            !- Schedule Type Limits Name
    No,                       !- Interpolate to Timestep
    24:00,                    !- Time 1
    15.6;                     !- Value Until Time 1

Schedule:Day:Interval,
    Large Office HtgSetp Rule 2 Day Schedule,    !- Name
    Temperature 3,            !- Schedule Type Limits Name
    No,                       !- Interpolate to Timestep
    06:00,                    !- Time 1
    15.6,                     !- Value Until Time 1
    18:00,                    !- Time 2
    21,                       !- Value Until Time 2
    24:00,                    !- Time 3
    15.6;                     !- Value Until Time 3

Schedule:Day:Interval,
    Large Office HtgSetp Summer Design Day,    !- Name
    Temperature 3,            !- Schedule Type Limits Name
    No,                       !- Interpolate to Timestep
    24:00,                    !- Time 1
    15.6;                     !- Value Until Time 1

Schedule:Day:Interval,
    Large Office HtgSetp Winter Design Day,    !- Name
    Temperature 3,            !- Schedule Type Limits Name
    No,                       !- Interpolate to Timestep
    24:00,                    !- Time 1
    21;                       !- Value Until Time 1

Schedule:Day:Interval,
    Large Office Infil Quarter On Default Schedule,    !- Name
    Fractional,               !- Schedule Type Limits Name
    No,                       !- Interpolate to Timestep
    06:00,                    !- Time 1
    1,                        !- Value Until Time 1
    22:00,                    !- Time 2
    0.25,                     !- Value Until Time 2
    24:00,                    !- Time 3
    1;                        !- Value Until Time 3

Schedule:Day:Interval,
    Large Office Infil Quarter On Rule 1 Day Schedule,    !- Name
    Fractional,               !- Schedule Type Limits Name
    No,                       !- Interpolate to Timestep
    24:00,                    !- Time 1
    1;                        !- Value Until Time 1

Schedule:Day:Interval,
    Large Office Infil Quarter On Rule 2 Day Schedule,    !- Name
    Fractional,               !- Schedule Type Limits Name
    No,                       !- Interpolate to Timestep
    06:00,                    !- Time 1
    1,                        !- Value Until Time 1
    18:00,                    !- Time 2
    0.25,                     !- Value Until Time 2
    24:00,                    !- Time 3
    1;                        !- Value Until Time 3

Schedule:Day:Interval,
    Large Office Infil Quarter On Summer Design Day,    !- Name
    Fractional,               !- Schedule Type Limits Name
    No,                       !- Interpolate to Timestep
    06:00,                    !- Time 1
    1,                        !- Value Until Time 1
    22:00,                    !- Time 2
    0.25,                     !- Value Until Time 2
    24:00,                    !- Time 3
    1;                        !- Value Until Time 3

Schedule:Day:Interval,
    Large Office Infil Quarter On Winter Design Day,    !- Name
    Fractional,               !- Schedule Type Limits Name
    No,                       !- Interpolate to Timestep
    06:00,                    !- Time 1
    1,                        !- Value Until Time 1
    18:00,                    !- Time 2
    0.25,                     !- Value Until Time 2
    24:00,                    !- Time 3
    1;                        !- Value Until Time 3

Schedule:Day:Interval,
    Medium Office Activity Default Schedule,    !- Name
    ActivityLevel 13,         !- Schedule Type Limits Name
    No,                       !- Interpolate to Timestep
    24:00,                    !- Time 1
    120;                      !- Value Until Time 1

Schedule:Day:Interval,
    Medium Office Activity Summer Design Day,    !- Name
    ActivityLevel 13,         !- Schedule Type Limits Name
    No,                       !- Interpolate to Timestep
    24:00,                    !- Time 1
    120;                      !- Value Until Time 1

Schedule:Day:Interval,
    Medium Office Activity Winter Design Day,    !- Name
    ActivityLevel 13,         !- Schedule Type Limits Name
    No,                       !- Interpolate to Timestep
    24:00,                    !- Time 1
    120;                      !- Value Until Time 1

Schedule:Day:Interval,
    Medium Office Bldg Equip Default Schedule,    !- Name
    Fraction,                 !- Schedule Type Limits Name
    No,                       !- Interpolate to Timestep
    08:00,                    !- Time 1
    0.4,                      !- Value Until Time 1
    12:00,                    !- Time 2
    0.9,                      !- Value Until Time 2
    13:00,                    !- Time 3
    0.8,                      !- Value Until Time 3
    17:00,                    !- Time 4
    0.9,                      !- Value Until Time 4
    18:00,                    !- Time 5
    0.8,                      !- Value Until Time 5
    20:00,                    !- Time 6
    0.6,                      !- Value Until Time 6
    22:00,                    !- Time 7
    0.5,                      !- Value Until Time 7
    24:00,                    !- Time 8
    0.4;                      !- Value Until Time 8

Schedule:Day:Interval,
    Medium Office Bldg Equip Rule 1 Day Schedule,    !- Name
    Fraction,                 !- Schedule Type Limits Name
    No,                       !- Interpolate to Timestep
    24:00,                    !- Time 1
    0.3;                      !- Value Until Time 1

Schedule:Day:Interval,
    Medium Office Bldg Equip Rule 2 Day Schedule,    !- Name
    Fraction,                 !- Schedule Type Limits Name
    No,                       !- Interpolate to Timestep
    06:00,                    !- Time 1
    0.3,                      !- Value Until Time 1
    08:00,                    !- Time 2
    0.4,                      !- Value Until Time 2
    14:00,                    !- Time 3
    0.5,                      !- Value Until Time 3
    17:00,                    !- Time 4
    0.35,                     !- Value Until Time 4
    24:00,                    !- Time 5
    0.3;                      !- Value Until Time 5

Schedule:Day:Interval,
    Medium Office Bldg Equip Summer Design Day,    !- Name
    Fraction,                 !- Schedule Type Limits Name
    No,                       !- Interpolate to Timestep
    24:00,                    !- Time 1
    1;                        !- Value Until Time 1

Schedule:Day:Interval,
    Medium Office Bldg Equip Winter Design Day,    !- Name
    Fraction,                 !- Schedule Type Limits Name
    No,                       !- Interpolate to Timestep
    24:00,                    !- Time 1
    0;                        !- Value Until Time 1

Schedule:Day:Interval,
    Medium Office Bldg Occ Default Schedule,    !- Name
    Fraction,                 !- Schedule Type Limits Name
    No,                       !- Interpolate to Timestep
    06:00,                    !- Time 1
    0,                        !- Value Until Time 1
    07:00,                    !- Time 2
    0.1,                      !- Value Until Time 2
    08:00,                    !- Time 3
    0.2,                      !- Value Until Time 3
    12:00,                    !- Time 4
    0.95,                     !- Value Until Time 4
    13:00,                    !- Time 5
    0.5,                      !- Value Until Time 5
    17:00,                    !- Time 6
    0.95,                     !- Value Until Time 6
    18:00,                    !- Time 7
    0.7,                      !- Value Until Time 7
    20:00,                    !- Time 8
    0.4,                      !- Value Until Time 8
    22:00,                    !- Time 9
    0.1,                      !- Value Until Time 9
    24:00,                    !- Time 10
    0.05;                     !- Value Until Time 10

Schedule:Day:Interval,
    Medium Office Bldg Occ Rule 1 Day Schedule,    !- Name
    Fraction,                 !- Schedule Type Limits Name
    No,                       !- Interpolate to Timestep
    24:00,                    !- Time 1
    0;                        !- Value Until Time 1

Schedule:Day:Interval,
    Medium Office Bldg Occ Rule 2 Day Schedule,    !- Name
    Fraction,                 !- Schedule Type Limits Name
    No,                       !- Interpolate to Timestep
    06:00,                    !- Time 1
    0,                        !- Value Until Time 1
    08:00,                    !- Time 2
    0.1,                      !- Value Until Time 2
    14:00,                    !- Time 3
    0.5,                      !- Value Until Time 3
    17:00,                    !- Time 4
    0.1,                      !- Value Until Time 4
    24:00,                    !- Time 5
    0;                        !- Value Until Time 5

Schedule:Day:Interval,
    Medium Office Bldg Occ Summer Design Day,    !- Name
    Fraction,                 !- Schedule Type Limits Name
    No,                       !- Interpolate to Timestep
    06:00,                    !- Time 1
    0,                        !- Value Until Time 1
    22:00,                    !- Time 2
    1,                        !- Value Until Time 2
    24:00,                    !- Time 3
    0.05;                     !- Value Until Time 3

Schedule:Day:Interval,
    Medium Office Bldg Occ Winter Design Day,    !- Name
    Fraction,                 !- Schedule Type Limits Name
    No,                       !- Interpolate to Timestep
    24:00,                    !- Time 1
    0;                        !- Value Until Time 1

Schedule:Day:Interval,
    Medium Office ClgSetp Default Schedule,    !- Name
    Temperature 37,           !- Schedule Type Limits Name
    No,                       !- Interpolate to Timestep
    06:00,                    !- Time 1
    26.7,                     !- Value Until Time 1
    22:00,                    !- Time 2
    24,                       !- Value Until Time 2
    24:00,                    !- Time 3
    26.7;                     !- Value Until Time 3

Schedule:Day:Interval,
    Medium Office ClgSetp Rule 1 Day Schedule,    !- Name
    Temperature 37,           !- Schedule Type Limits Name
    No,                       !- Interpolate to Timestep
    24:00,                    !- Time 1
    26.7;                     !- Value Until Time 1

Schedule:Day:Interval,
    Medium Office ClgSetp Rule 2 Day Schedule,    !- Name